Circuit: * Z:\home\aalmela\scm\git\utn\eaiii\2019\Estabilidad\spice\ejercicio.asc

Limiting rise time of source v1 to 1e-009
Limiting fall time of source v1 to 1e-009
.OP point found by inspection.

Date: Fri May 31 04:01:14 2019
Total elapsed time: 0.146 seconds.

tnom = 27
temp = 27
method = trap
totiter = 0
traniter = 0
tranpoints = 0
accept = 0
rejected = 0
matrix size = 13
fillins = 7
solver = Normal

