Circuit: * Z:\home\aalmela\scm\git\utn\eaiii\2019\proyecto\FiltroSintonia\filtro_Tee_tuning.asc

Direct Newton iteration for .op point succeeded.

Date: Tue Oct 08 18:59:30 2019
Total elapsed time: 1.078 seconds.

tnom = 27
temp = 27
method = trap
totiter = 11
traniter = 0
tranpoints = 0
accept = 0
rejected = 0
matrix size = 38
fillins = 4
solver = Normal
Matrix Compiler1:     144 opcodes
Matrix Compiler2: 3.04 KB object code size
