Circuit: * Z:\home\aalmela\scm\git\utn\eaiii\2019\Redes_de_adaptacion\segundaentrega\spice\Draft1.asc


Date: Thu May 16 04:39:42 2019
Total elapsed time: 0.035 seconds.

tnom = 27
temp = 27
method = trap
totiter = 0
traniter = 0
tranpoints = 0
accept = 0
rejected = 0
matrix size = 2
fillins = 0
solver = Normal

