Circuit: * Z:\home\aalmela\scm\git\utn\eaiii\2019\Redes_de_adaptacion\segundaentrega\spice\eje2.asc


Date: Tue May 14 22:03:15 2019
Total elapsed time: 0.037 seconds.

tnom = 27
temp = 27
method = trap
totiter = 0
traniter = 0
tranpoints = 0
accept = 0
rejected = 0
matrix size = 7
fillins = 0
solver = Normal

