Circuit: * Z:\home\aalmela\scm\git\utn\eaiii\2019\Redes_de_adaptacion\segundaentrega\spice\eje2para.asc

Per .tran options, skipping operating point for transient analysis.

Date: Wed Apr 24 23:32:44 2019
Total elapsed time: 0.031 seconds.

tnom = 27
temp = 27
method = modified trap
totiter = 5326
traniter = 5326
tranpoints = 2664
accept = 1891
rejected = 773
matrix size = 6
fillins = 0
solver = Normal
Matrix Compiler1: 334 bytes object code size  0.6/0.5/[0.4]
Matrix Compiler2: 442 bytes object code size  0.5/0.5/[0.5]


