Circuit: * Z:\home\aalmela\scm\git\utn\eaiii\2019\Redes_de_adaptacion\segundaentrega\spice\eje3.asc

Number of points per decade reduced from 1000000 to 293400.

Date: Thu Apr 25 00:29:13 2019
Total elapsed time: 0.453 seconds.

tnom = 27
temp = 27
method = trap
totiter = 0
traniter = 0
tranpoints = 0
accept = 0
rejected = 0
matrix size = 4
fillins = 0
solver = Normal

