Circuit: * Z:\home\aalmela\scm\git\utn\eaiii\2019\proyecto\LNA\LTspice\LNABFP460.asc

Direct Newton iteration for .op point succeeded.

Date: Tue Oct 08 18:59:09 2019
Total elapsed time: 0.055 seconds.

tnom = 25
temp = 27
method = trap
totiter = 5
traniter = 0
tranpoints = 0
accept = 0
rejected = 0
matrix size = 21
fillins = 10
solver = Normal
Matrix Compiler1:     124 opcodes
Matrix Compiler2: 1.94 KB object code size
