Circuit: * Z:\home\aalmela\scm\git\utn\eaiii\2019\Mezcladores\dual_simula.asc

Per .tran options, skipping operating point for transient analysis.

Date: Fri Oct 11 23:10:39 2019
Total elapsed time: 0.100 seconds.

tnom = 27
temp = 27
method = modified trap
totiter = 19702
traniter = 19702
tranpoints = 7227
accept = 4590
rejected = 2637
matrix size = 18
fillins = 2
solver = Normal
Matrix Compiler1: 762 bytes object code size  1.0/0.8/[0.8]
Matrix Compiler2: 1.34 KB object code size  0.8/0.9/[0.8]

