Circuit: * Z:\home\aalmela\scm\git\utn\eaiii\2019\Redes_de_adaptacion\Guia\LTspice\eje3.asc


Date: Mon Apr 08 01:43:49 2019
Total elapsed time: 0.017 seconds.

tnom = 27
temp = 27
method = trap
totiter = 0
traniter = 0
tranpoints = 0
accept = 0
rejected = 0
matrix size = 4
fillins = 0
solver = Normal

